/*--------------------------------*- C++ -*----------------------------------*\
  =========                 |
  \\      /  F ield         | OpenFOAM: The Open Source CFD Toolbox
   \\    /   O peration     | Website:  https://openfoam.org
    \\  /    A nd           | Version:  7
     \\/     M anipulation  |
\*---------------------------------------------------------------------------*/
FoamFile
{
    version     2.0;
    format      ascii;
    class       dictionary;
    object      snappyHexMeshDict;
}
// * * * * * * * * * * * * * * * * * * * * * * * * * * * * * * * * * * * * * //

#includeEtc "caseDicts/mesh/generation/snappyHexMeshDict.cfg"

castellatedMesh on;
snap            on;
addLayers       off;

geometry
{
    buildings
    {
        type triSurfaceMesh;
        input1
    }
    input10
    refinementBox1
    {
        type searchableBox;
        input2
        input3
    }

    refinementBox2
    {
        type searchableBox;
        input4
        input5
    }

    refinementBox3
    {
        type searchableBox;
        input6
        input7
    }
};

castellatedMeshControls
{
    features
    (
        input8
    );

    refinementSurfaces
    {
        buildings
        {
            level (4 4);
            patchInfo { type wall; }
        }

    }

    refinementRegions
    {
        refinementBox1
        {
            mode inside;
            levels ((1E15 3));
        }

        refinementBox2
        {
            mode inside;
            levels ((1E15 2));
        }

        refinementBox3
        {
            mode inside;
            levels ((1E15 1));
        }
        input11
    }

    input9
    nCellsBetweenLevels 4;
    maxGlobalCells 150000000;
}

snapControls
{
    explicitFeatureSnap    true;
    implicitFeatureSnap    false;
}

addLayersControls
{
    layers
    {
        "CAD.*"
        {
            nSurfaceLayers 2;
        }
    }

    relativeSizes       true;
    expansionRatio      1.2;
    finalLayerThickness 0.5;
    minThickness        1e-3;
}

meshQualityControls
{}

writeFlags
(
    // scalarLevels
    // layerSets
    // layerFields
);

mergeTolerance 1e-6;

// ************************************************************************* //